* GTKWave TIM to ngspice PWL converter
* Source: femto.tim
* Time Scale: 1e-12 seconds
* VDD Level: 3.3V
* Signals: 4

.lib /usr/local/share/pdk/sky130A/libs.tech/ngspice/sky130.lib.spice tt 
.tran 10000ns 200us
.print tran format=raw file=femto_cir.raw  v(*)
* Fuentes de alimentación
Vvdd VPWR 0 DC 3.3
Vgnd VGND 0 DC 0

* clk - 89369 transitions
V_clk clk 0 PWL(0 0 -8e-08 0 2e-08 3.3 -6e-08 3.3 4e-08 0 -4e-08 0 6e-08 3.3 -1.9999999999999994e-08 3.3 8e-08 0 0.0 0 1e-07 3.3 1.9999999999999994e-08 3.3 1.2e-07 0 4.0000000000000014e-08 0 1.4e-07 3.3 6.000000000000001e-08 3.3 1.6e-07 0 8e-08 0 1.8e-07 3.3 1e-07 3.3 2e-07 0 1.2e-07 0 2.1999999999999998e-07 3.3 1.3999999999999998e-07 3.3 2.4e-07 0 1.6e-07 0 2.6e-07 3.3 1.8000000000000002e-07 3.3 2.8e-07 0 2e-07 0 3e-07 3.3 2.2e-07 3.3 3.2e-07 0 2.4e-07 0 3.4e-07 3.3 2.6e-07 3.3 3.6e-07 0 2.8e-07 0 3.8e-07 3.3 3e-07 3.3 4e-07 0 3.2e-07 0 4.2e-07 3.3 3.4e-07 3.3 4.3999999999999997e-07 0 3.6e-07 0 4.6e-07 3.3 3.7999999999999996e-07 3.3 4.8e-07 0 4e-07 0 5e-07 3.3 4.2e-07 3.3 5.2e-07 0 4.4e-07 0 5.4e-07 3.3 4.6000000000000004e-07 3.3 5.6e-07 0 4.8e-07 0 5.8e-07 3.3 5e-07 3.3 6e-07 0 5.2e-07 0 6.2e-07 3.3 5.4e-07 3.3 6.4e-07 0 5.6e-07 0 6.6e-07 3.3 5.8e-07 3.3 6.8e-07 0 6e-07 0 7e-07 3.3 6.2e-07 3.3 7.2e-07 0 6.4e-07 0 7.4e-07 3.3 6.6e-07 3.3 7.6e-07 0 6.8e-07 0 7.799999999999999e-07 3.3 7e-07 3.3 8e-07 0 7.2e-07 0 8.2e-07 3.3 7.4e-07 3.3 8.4e-07 0 7.6e-07 0 8.6e-07 3.3 7.799999999999999e-07 3.3 8.799999999999999e-07 0 8e-07 0 9e-07 3.3 8.2e-07 3.3 9.2e-07 0 8.4e-07 0 9.4e-07 3.3 8.599999999999999e-07 3.3 9.6e-07 0 8.799999999999999e-07 0 9.8e-07 3.3 9e-07 3.3 1e-06 0 9.2e-07 0 1.02e-06 3.3 9.4e-07 3.3 1.04e-06 0 9.600000000000001e-07 0 1.06e-06 3.3 9.8e-07 3.3 1.08e-06 0 1.0000000000000002e-06 0 1.1e-06 3.3 1.02e-06 3.3 1.12e-06 0 1.0399999999999998e-06 0 1.1399999999999999e-06 3.3 1.06e-06 3.3 1.16e-06 0 1.0799999999999998e-06 0 1.18e-06 3.3 1.1e-06 3.3 1.2e-06 0 1.1199999999999999e-06 0 1.22e-06 3.3 1.14e-06 3.3 1.24e-06 0 1.16e-06 0 1.26e-06 3.3 1.1800000000000001e-06 3.3 1.28e-06 0 1.2e-06 0 1.3e-06 3.3 1.2200000000000002e-06 3.3 1.32e-06 0 1.24e-06 0 1.3399999999999999e-06 3.3 1.2599999999999998e-06 3.3 1.36e-06 0 1.28e-06 0 1.38e-06 3.3 1.2999999999999998e-06 3.3 1.4e-06 0 1.32e-06 0 1.42e-06 3.3 1.3399999999999999e-06 3.3 1.44e-06 0 1.3600000000000001e-06 0 1.46e-06 3.3 1.38e-06 3.3 1.48e-06 0 1.4000000000000001e-06 0 1.5e-06 3.3 1.42e-06 3.3 1.52e-06 0 1.4399999999999998e-06 0 1.5399999999999999e-06 3.3 1.46e-06 3.3 1.5599999999999999e-06 0 1.4799999999999998e-06 0 1.58e-06 3.3 1.5e-06 3.3 1.6e-06 0 1.5199999999999998e-06 0 1.62e-06 3.3 1.54e-06 3.3 1.64e-06 0 1.5599999999999999e-06 0 1.66e-06 3.3 1.5800000000000001e-06 3.3 1.68e-06 0 1.6e-06 0 1.7e-06 3.3 1.6200000000000002e-06 3.3 1.72e-06 0 1.64e-06 0 1.74e-06 3.3 1.6599999999999998e-06 3.3 1.7599999999999999e-06 0 1.68e-06 0 1.78e-06 3.3 1.6999999999999998e-06 3.3 1.8e-06 0 1.72e-06 0 1.82e-06 3.3 1.7399999999999999e-06 3.3 1.84e-06 0 1.76e-06 0 1.86e-06 3.3 1.78e-06 3.3 1.88e-06 0 1.8000000000000001e-06 0 1.9e-06 3.3 1.82e-06 3.3 1.92e-06 0 1.8400000000000002e-06 0 1.94e-06 3.3 1.86e-06 3.3 1.96e-06 0 1.8800000000000002e-06 0 1.98e-06 3.3 1.9e-06 3.3 2e-06 0 1.9200000000000003e-06 0 2.02e-06 3.3 1.94e-06 3.3 2.04e-06 0 1.96e-06 0 2.0599999999999998e-06 3.3 1.98e-06 3.3 2.08e-06 0 2e-06 0 2.1e-06 3.3 2.02e-06 3.3 2.12e-06 0 2.04e-06 0 2.14e-06 3.3 2.06e-06 3.3 2.16e-06 0 2.08e-06 0 2.18e-06 3.3 2.1000000000000002e-06 3.3 2.2e-06 0 2.12e-06 0 2.22e-06 3.3 2.1400000000000003e-06 3.3 2.24e-06 0 2.16e-06 0 2.26e-06 3.3 2.18e-06 3.3 2.2799999999999998e-06 0 2.2e-06 0 2.3e-06 3.3 2.22e-06 3.3 2.32e-06 0 2.24e-06 0 2.34e-06 3.3 2.26e-06 3.3 2.36e-06 0 2.28e-06 0 2.38e-06 3.3 2.3e-06 3.3 2.4e-06 0 2.3200000000000002e-06 0 2.42e-06 3.3 2.34e-06 3.3 2.44e-06 0 2.36e-06 0 2.4599999999999997e-06 3.3 2.38e-06 3.3 2.48e-06 0 2.4e-06 0 2.4999999999999998e-06 3.3 2.42e-06 3.3 2.52e-06 0 2.44e-06 0 2.54e-06 3.3 2.46e-06 3.3 2.56e-06 0 2.48e-06 0 2.58e-06 3.3 2.5e-06 3.3 2.6e-06 0 2.52e-06 0 2.62e-06 3.3 2.5400000000000002e-06 3.3 2.64e-06 0 2.56e-06 0 2.66e-06 3.3 2.58e-06 3.3 2.6799999999999998e-06 0 2.6e-06 0 2.7e-06 3.3 2.62e-06 3.3 2.72e-06 0 2.64e-06 0 2.74e-06 3.3 2.66e-06 3.3 2.76e-06 0 2.68e-06 0 2.78e-06 3.3 2.7e-06 3.3 2.8e-06 0 2.7200000000000002e-06 0 2.82e-06 3.3 2.74e-06 3.3 2.84e-06 0 2.7600000000000003e-06 0 2.86e-06 3.3 2.78e-06 3.3 2.88e-06 0 2.8e-06 0 2.8999999999999998e-06 3.3 2.82e-06 3.3 2.92e-06 0 2.84e-06 0 2.94e-06 3.3 2.86e-06 3.3 2.96e-06 0 2.88e-06 0 2.98e-06 3.3 2.9e-06 3.3 3e-06 0 2.92e-06 0 3.02e-06 3.3 2.9400000000000002e-06 3.3 3.04e-06 0 2.96e-06 0 3.06e-06 3.3 2.98e-06 3.3 3.0799999999999997e-06 0 3e-06 0 3.1e-06 3.3 3.02e-06 3.3 3.1199999999999998e-06 0 3.04e-06 0 3.14e-06 3.3 3.06e-06 3.3 3.16e-06 0 3.08e-06 0 3.18e-06 3.3 3.1e-06 3.3 3.2e-06 0 3.12e-06 0 3.22e-06 3.3 3.14e-06 3.3 3.24e-06 0 3.1600000000000002e-06 0 3.26e-06 3.3 3.18e-06 3.3 3.28e-06 0 3.2e-06 0 3.2999999999999997e-06 3.3 3.22e-06 3.3 3.32e-06 0 3.24e-06 0 3.3399999999999998e-06 3.3 3.26e-06 3.3 3.36e-06 0 3.28e-06 0 3.38e-06 3.3 3.3e-06 3.3 3.4e-06 0 3.32e-06 0 3.42e-06 3.3 3.34e-06 3.3 3.44e-06 0 3.36e-06 0 3.46e-06 3.3 3.3800000000000002e-06 3.3 3.48e-06 0 3.4e-06 0 3.5e-06 3.3 3.42e-06 3.3 3.5199999999999998e-06 0 3.44e-06 0 3.54e-06 3.3 3.46e-06 3.3 3.56e-06 0 3.48e-06 0 3.58e-06 3.3 3.5e-06 3.3 3.6e-06 0 3.52e-06 0 3.62e-06 3.3 3.54e-06 3.3 3.64e-06 0 3.5600000000000002e-06 0 3.66e-06 3.3 3.58e-06 3.3 3.68e-06 0 3.6e-06 0 3.6999999999999997e-06 3.3 3.62e-06 3.3 3.72e-06 0 3.64e-06 0 3.7399999999999998e-06 3.3 3.66e-06 3.3 3.76e-06 0 3.68e-06 0 3.78e-06 3.3 3.7e-06 3.3 3.8e-06 0 3.72e-06 0 3.82e-06 3.3 3.7399999999999998e-06 3.3 3.84e-06 0 3.7600000000000004e-06 0 3.86e-06 3.3 3.7800000000000002e-06 3.3 3.88e-06 0 3.8e-06 0 3.9e-06 3.3 3.82e-06 3.3 3.92e-06 0 3.84e-06 0 3.9399999999999995e-06 3.3 3.86e-06 3.3 3.96e-06 0 3.88e-06 0 3.98e-06 3.3 3.9e-06 3.3 4e-06 0 3.92e-06 0 4.02e-06 3.3 3.94e-06 3.3 4.04e-06 0 3.96e-06 0 4.06e-06 3.3 3.98e-06 3.3 4.08e-06 0 4e-06 0 4.1e-06 3.3 4.02e-06 3.3 4.1199999999999995e-06 0 4.04e-06 0 4.14e-06 3.3 4.06e-06 3.3 4.16e-06 0 4.08e-06 0 4.18e-06 3.3 4.1e-06 3.3 4.2e-06 0 4.12e-06 0 4.22e-06 3.3 4.14e-06 3.3 4.24e-06 0 4.16e-06 0 4.26e-06 3.3 4.18e-06 3.3 4.28e-06 0 4.2000000000000004e-06 0 4.3e-06 3.3 4.22e-06 3.3 4.32e-06 0 4.24e-06 0 4.34e-06 3.3 4.26e-06 3.3 4.36e-06 0 4.28e-06 0 4.3799999999999996e-06 3.3 4.3e-06 3.3 4.4e-06 0 4.32e-06 0 4.42e-06 3.3 4.34e-06 3.3 4.44e-06 0 4.36e-06 0 4.46e-06 3.3 4.38e-06 3.3 4.48e-06 0 4.4e-06 0 4.5e-06 3.3 4.42e-06 3.3 4.52e-06 0 4.44e-06 0 4.54e-06 3.3 4.46e-06 3.3 4.5599999999999995e-06 0 4.48e-06 0 4.58e-06 3.3 4.5e-06 3.3 4.6e-06 0 4.52e-06 0 4.62e-06 3.3 4.54e-06 3.3 4.64e-06 0 4.56e-06 0 4.66e-06 3.3 4.58e-06 3.3 4.68e-06 0 4.6e-06 0 4.7e-06 3.3 4.62e-06 3.3 4.72e-06 0 4.64e-06 0 4.7399999999999995e-06 3.3 4.66e-06 3.3 4.76e-06 0 4.68e-06 0 4.78e-06 3.3 4.7e-06 3.3 4.8e-06 0 4.72e-06 0 4.82e-06 3.3 4.74e-06 3.3 4.84e-06 0 4.76e-06 0 4.86e-06 3.3 4.78e-06 3.3 4.88e-06 0 4.8e-06 0 4.9e-06 3.3 4.82e-06 3.3 4.9199999999999995e-06 0 4.84e-06 0 4.94e-06 3.3 4.86e-06 3.3 4.96e-06 0 4.88e-06 0 4.98e-06 3.3 4.9e-06 3.3 4.9999999999999996e-06 0 4.92e-06 0 5.02e-06 3.3 4.94e-06 3.3 5.04e-06 0 4.96e-06 0 5.06e-06 3.3 4.98e-06 3.3 5.08e-06 0 5e-06 0 5.1e-06 3.3 5.02e-06 3.3 5.12e-06 0 5.04e-06 0 5.14e-06 3.3 5.06e-06 3.3 5.16e-06 0 5.08e-06 0 5.1799999999999995e-06 3.3 5.1e-06 3.3 5.2e-06 0 5.12e-06 0 5.22e-06 3.3 5.14e-06 3.3 5.24e-06 0 5.16e-06 0 5.26e-06 3.3 5.18e-06 3.3 5.28e-06 0 5.2e-06 0 5.3e-06 3.3 5.22e-06 3.3 5.32e-06 0 5.24e-06 0 5.34e-06 3.3 5.26e-06 3.3 5.3599999999999995e-06 0 5.28e-06 0 5.38e-06 3.3 5.3e-06 3.3 5.4e-06 0 5.32e-06 0 5.42e-06 3.3 5.34e-06 3.3 5.44e-06 0 5.36e-06 0 5.46e-06 3.3 5.38e-06 3.3 5.48e-06 0 5.4e-06 0 5.5e-06 3.3 5.42e-06 3.3 5.52e-06 0 5.44e-06 0 5.5399999999999995e-06 3.3 5.46e-06 3.3 5.56e-06 0 5.48e-06 0 5.58e-06 3.3 5.5e-06 3.3 5.6e-06 0 5.52e-06 0 5.6199999999999996e-06 3.3 5.54e-06 3.3 5.64e-06 0 5.56e-06 0 5.66e-06 3.3 5.58e-06 3.3 5.68e-06 0 5.6e-06 0 5.7e-06 3.3 5.62e-06 3.3 5.72e-06 0 5.64e-06 0 5.74e-06 3.3 5.66e-06 3.3 5.76e-06 0 5.68e-06 0 5.78e-06 3.3 5.7e-06 3.3 5.7999999999999995e-06 0 5.72e-06 0 5.82e-06 3.3 5.74e-06 3.3 5.84e-06 0 5.76e-06 0 5.86e-06 3.3 5.78e-06 3.3 5.88e-06 0 5.8e-06 0 5.9e-06 3.3 5.82e-06 3.3 5.92e-06 0 5.84e-06 0 5.94e-06 3.3 5.86e-06 3.3 5.96e-06 0 5.88e-06 0 5.9799999999999995e-06 3.3 5.9e-06 3.3 6e-06 0 5.92e-06 0 6.02e-06 3.3 5.94e-06 3.3 6.04e-06 0 5.96e-06 0 6.06e-06 3.3 5.98e-06 3.3 6.08e-06 0 6e-06 0 6.1e-06 3.3 6.02e-06 3.3 6.12e-06 0 6.04e-06 0 6.14e-06 3.3 6.06e-06 3.3 6.1599999999999995e-06 0 6.08e-06 0 6.18e-06 3.3 6.1e-06 3.3 6.2e-06 0 6.12e-06 0 6.22e-06 3.3 6.14e-06 3.3 6.2399999999999995e-06 0 6.16e-06 0 6.26e-06 3.3 6.18e-06 3.3 6.28e-06 0 6.2e-06 0 6.3e-06 3.3 6.22e-06 3.3 6.32e-06 0 6.24e-06 0 6.34e-06 3.3 6.26e-06 3.3 6.36e-06 0 6.28e-06 0 6.38e-06 3.3 6.3e-06 3.3 6.4e-06 0 6.32e-06 0 6.4199999999999995e-06 3.3 6.34e-06 3.3 6.44e-06 0 6.36e-06 0 6.46e-06 3.3 6.38e-06 3.3 6.48e-06 0 6.4e-06 0 6.5e-06 3.3 6.42e-06 3.3 6.52e-06 0 6.44e-06 0 6.54e-06 3.3 6.46e-06 3.3 6.56e-06 0 6.48e-06 0 6.58e-06 3.3 6.5e-06 3.3 6.5999999999999995e-06 0 6.52e-06 0 6.62e-06 3.3 6.54e-06 3.3 6.64e-06 0 6.56e-06 0 6.66e-06 3.3 6.58e-06 3.3 6.6799999999999996e-06 0 6.6e-06 0 6.7e-06 3.3 6.62e-06 3.3 6.72e-06 0 6.64e-06 0 6.74e-06 3.3 6.66e-06 3.3 6.76e-06 0 6.6799999999999996e-06 0 6.7799999999999995e-06 3.3 6.7e-06 3.3 6.8e-06 0 6.72e-06 0 6.82e-06 3.3 6.74e-06 3.3 6.84e-06 0 6.76e-06 0 6.8599999999999995e-06 3.3 6.78e-06 3.3 6.88e-06 0 6.8e-06 0 6.9e-06 3.3 6.82e-06 3.3 6.92e-06 0 6.84e-06 0 6.94e-06 3.3 6.86e-06 3.3 6.96e-06 0 6.88e-06 0 6.98e-06 3.3 6.9e-06 3.3 7e-06 0 6.92e-06 0 7.02e-06 3.3 6.94e-06 3.3 7.0399999999999995e-06 0 6.96e-06 0 7.06e-06 3.3 6.98e-06 3.3 7.08e-06 0 7e-06 0 7.1e-06 3.3 7.02e-06 3.3 7.12e-06 0 7.04e-06 0 7.14e-06 3.3 7.06e-06 3.3 7.16e-06 0 7.08e-06 0 7.18e-06 3.3 7.1e-06 3.3 7.2e-06 0 7.12e-06 0 7.2199999999999995e-06 3.3 7.14e-06 3.3 7.24e-06 0 7.16e-06 0 7.26e-06 3.3 7.18e-06 3.3 7.28e-06 0 7.2e-06 0 7.2999999999999996e-06 3.3 7.22e-06 3.3 7.32e-06 0 7.24e-06 0 7.34e-06 3.3 7.26e-06 3.3 7.36e-06 0 7.28e-06 0 7.38e-06 3.3 7.2999999999999996e-06 3.3 7.3999999999999995e-06 0 7.32e-06 0 7.42e-06 3.3 7.34e-06 3.3 7.44e-06 0 7.36e-06 0 7.46e-06 3.3 7.38e-06 3.3 7.4799999999999995e-06 0 7.4e-06 0 7.5e-06 3.3 7.42e-06 3.3 7.52e-06 0 7.44e-06 0 7.54e-06 3.3 7.46e-06 3.3 7.56e-06 0 7.4799999999999995e-06 0 7.5799999999999994e-06 3.3 7.5e-06 3.3 7.6e-06 0 7.52e-06 0 7.62e-06 3.3 7.54e-06 3.3 7.64e-06 0 7.56e-06 0 7.66e-06 3.3 7.5799999999999994e-06 3.3 7.68e-06 0 7.599999999999999e-06 0 7.699999999999999e-06 3.3 7.620000000000001e-06 3.3 7.72e-06 0 7.64e-06 0 7.74e-06 3.3 7.66e-06 3.3 7.76e-06 0 7.68e-06 0 7.78e-06 3.3 7.699999999999999e-06 3.3 7.8e-06 0 7.719999999999999e-06 0 7.82e-06 3.3 7.739999999999999e-06 3.3 7.84e-06 0 7.759999999999999e-06 0 7.86e-06 3.3 7.779999999999998e-06 3.3 7.879999999999999e-06 0 7.8e-06 0 7.9e-06 3.3 7.82e-06 3.3 7.92e-06 0 7.84e-06 0 7.94e-06 3.3 7.86e-06 3.3 7.96e-06 0 7.879999999999999e-06 0 7.98e-06 3.3 7.899999999999999e-06 3.3 8e-06 0 7.919999999999999e-06 0 8.02e-06 3.3 7.939999999999999e-06 3.3 8.04e-06 0 7.959999999999998e-06 0 8.059999999999999e-06 3.3 7.98e-06 3.3 8.08e-06 0 8e-06 0 8.1e-06 3.3 8.02e-06 3.3 8.12e-06 0 8.04e-06 0 8.14e-06 3.3 8.059999999999999e-06 3.3 8.16e-06 0 8.079999999999999e-06 0 8.18e-06 3.3 8.099999999999999e-06 3.3 8.2e-06 0 8.119999999999998e-06 0 8.22e-06 3.3 8.139999999999998e-06 3.3 8.239999999999999e-06 0 8.16e-06 0 8.26e-06 3.3 8.18e-06 3.3 8.28e-06 0 8.2e-06 0 8.3e-06 3.3 8.22e-06 3.3 8.32e-06 0 8.239999999999999e-06 0 8.34e-06 3.3 8.259999999999999e-06 3.3 8.36e-06 0 8.279999999999999e-06 0 8.38e-06 3.3 8.299999999999998e-06 3.3 8.4e-06 0 8.319999999999998e-06 0 8.419999999999999e-06 3.3 8.34e-06 3.3 8.44e-06 0 8.36e-06 0 8.46e-06 3.3 8.38e-06 3.3 8.48e-06 0 8.4e-06 0 8.5e-06 3.3 8.419999999999999e-06 3.3 8.52e-06 0 8.439999999999999e-06 0 8.54e-06 3.3 8.459999999999999e-06 3.3 8.56e-06 0 8.479999999999998e-06 0 8.58e-06 3.3 8.5e-06 3.3 8.6e-06 0 8.52e-06 0 8.62e-06 3.3 8.54e-06 3.3 8.64e-06 0 8.56e-06 0 8.66e-06 3.3 8.58e-06 3.3 8.68e-06 0 8.599999999999999e-06 0 8.7e-06 3.3 8.619999999999999e-06 3.3 8.72e-06 0 8.639999999999999e-06 0 8.74e-06 3.3 8.659999999999998e-06 3.3 8.759999999999999e-06 0 8.68e-06 0 8.78e-06 3.3 8.7e-06 3.3 8.8e-06 0 8.72e-06 0 8.82e-06 3.3 8.74e-06 3.3 8.84e-06 0 8.759999999999999e-06 0 8.86e-06 3.3 8.779999999999999e-06 3.3 8.88e-06 0 8.799999999999999e-06 0 8.9e-06 3.3 8.819999999999999e-06 3.3 8.92e-06 0 8.839999999999998e-06 0 8.939999999999999e-06 3.3 8.86e-06 3.3 8.96e-06 0 8.88e-06 0 8.98e-06 3.3 8.9e-06 3.3 9e-06 0 8.92e-06 0 9.02e-06 3.3 8.939999999999999e-06 3.3 9.04e-06 0 8.959999999999999e-06 0 9.06e-06 3.3 8.979999999999999e-06 3.3 9.08e-06 0 8.999999999999999e-06 0 9.1e-06 3.3 9.019999999999998e-06 3.3 9.119999999999999e-06 0 9.04e-06 0 9.14e-06 3.3 9.06e-06 3.3 9.16e-06 0 9.08e-06 0 9.18e-06 3.3 9.1e-06 3.3 9.2e-06 0 9.119999999999999e-06 0 9.22e-06 3.3 9.139999999999999e-06 3.3 9.24e-06 0 9.159999999999999e-06 0 9.26e-06 3.3 9.179999999999999e-06 3.3 9.28e-06 0 9.199999999999998e-06 0 9.299999999999999e-06 3.3 9.22e-06 3.3 9.32e-06 0 9.24e-06 0 9.34e-06 3.3 9.26e-06 3.3 9.36e-06 0 9.28e-06 0 9.38e-06 3.3 9.299999999999999e-06 3.3 9.4e-06 0 9.319999999999999e-06 0 9.42e-06 3.3 9.339999999999999e-06 3.3 9.44e-06 0 9.359999999999998e-06 0 9.46e-06 3.3 9.379999999999998e-06 3.3 9.479999999999999e-06 0 9.4e-06 0 9.5e-06 3.3 9.42e-06 3.3 9.52e-06 0 9.44e-06 0 9.54e-06 3.3 9.46e-06 3.3 9.56e-06 0 9.479999999999999e-06 0 9.58e-06 3.3 9.499999999999999e-06 3.3 9.6e-06 0 9.519999999999999e-06 0 9.62e-06 3.3 9.539999999999998e-06 3.3 9.64e-06 0 9.559999999999998e-06 0 9.659999999999999e-06 3.3 9.58e-06 3.3 9.68e-06 0 9.6e-06 0 9.7e-06 3.3 9.62e-06 3.3 9.72e-06 0 9.64e-06 0 9.74e-06 3.3 9.659999999999999e-06 3.3 9.76e-06 0 9.679999999999999e-06 0 9.78e-06 3.3 9.699999999999999e-06 3.3 9.8e-06 0 9.719999999999998e-06 0 9.82e-06 3.3 9.739999999999998e-06 3.3 9.839999999999999e-06 0 9.76e-06 0 9.86e-06 3.3 9.78e-06 3.3 9.88e-06 0 9.8e-06 0 9.9e-06 3.3 9.82e-06 3.3 9.92e-06 0 9.839999999999999e-06 0 9.94e-06 3.3 9.859999999999999e-06 3.3 9.96e-06 0 9.879999999999999e-06 0 9.98e-06 3.3 9.899999999999998e-06 3.3 9.999999999999999e-06 0 9.92e-06 0 1.002e-05 3.3 9.94e-06 3.3 1.004e-05 0 9.96e-06 0 1.006e-05 3.3 9.98e-06 3.3 1.008e-05 0 9.999999999999999e-06 0 1.01e-05 3.3 1.0019999999999999e-05 3.3 1.012e-05 0 1.0039999999999999e-05 0 1.014e-05 3.3 1.0059999999999999e-05 3.3 1.016e-05 0 1.0079999999999998e-05 0 1.0179999999999999e-05 3.3 1.01e-05 3.3 1.02e-05 0 1.012e-05 0 1.022e-05 3.3 1.014e-05 3.3 1.024e-05 0 1.016e-05 0 1.026e-05 3.3 1.0179999999999999e-05 3.3 1.028e-05 0 1.0199999999999999e-05 0 1.03e-05 3.3 1.0219999999999999e-05 3.3 1.032e-05 0 1.0239999999999999e-05 0 1.034e-05 3.3 1.0259999999999998e-05 3.3 1.0359999999999999e-05 0 1.028e-05 0 1.038e-05 3.3 1.03e-05 3.3 1.04e-05 0 1.032e-05 0 1.042e-05 3.3 1.034e-05 3.3 1.044e-05 0 1.0359999999999999e-05 0 1.046e-05 3.3 1.0379999999999999e-05 3.3 1.048e-05 0 1.0399999999999999e-05 0 1.05e-05 3.3 1.0419999999999998e-05 3.3 1.052e-05 0 1.0439999999999998e-05 0 1.0539999999999999e-05 3.3 1.046e-05 3.3 1.056e-05 0 1.048e-05 0 1.058e-05 3.3 1.05e-05 3.3 1.06e-05 0 1.052e-05 0 1.062e-05 3.3 1.0539999999999999e-05 3.3 1.064e-05 0 1.0559999999999999e-05 0 1.066e-05 3.3 1.0579999999999999e-05 3.3 1.068e-05 0 1.0599999999999998e-05 0 1.07e-05 3.3 1.0619999999999998e-05 3.3 1.0719999999999999e-05 0 1.064e-05 0 1.074e-05 3.3 1.066e-05 3.3 1.076e-05 0 1.068e-05 0 1.078e-05 3.3 1.07e-05 3.3 1.08e-05 0 1.0719999999999999e-05 0 1.082e-05 3.3 1.0739999999999999e-05 3.3 1.084e-05 0 1.0759999999999999e-05 0 1.086e-05 3.3 1.0779999999999998e-05 3.3 1.088e-05 0 1.0799999999999998e-05 0 1.0899999999999999e-05 3.3 1.082e-05 3.3 1.092e-05 0 1.084e-05 0 1.094e-05 3.3 1.086e-05 3.3 1.096e-05 0 1.088e-05 0 1.098e-05 3.3 1.0899999999999999e-05 3.3 1.1e-05 0 1.0919999999999999e-05 0 1.102e-05 3.3 1.0939999999999999e-05 3.3 1.104e-05 0 1.0959999999999998e-05 0 1.1059999999999999e-05 3.3 1.0979999999999998e-05 3.3 1.1079999999999999e-05 0 1.1e-05 0 1.11e-05 3.3 1.102e-05 3.3 1.112e-05 0 1.104e-05 0 1.114e-05 3.3 1.1059999999999999e-05 3.3 1.116e-05 0 1.1079999999999999e-05 0 1.118e-05 3.3 1.1099999999999999e-05 3.3 1.12e-05 0 1.1119999999999999e-05 0 1.122e-05 3.3 1.1139999999999998e-05 3.3 1.1239999999999999e-05 0 1.116e-05 0 1.126e-05 3.3 1.118e-05 3.3 1.128e-05 0 1.12e-05 0 1.13e-05 3.3 1.122e-05 3.3 1.132e-05 0 1.1239999999999999e-05 0 1.134e-05 3.3 1.1259999999999999e-05 3.3 1.136e-05 0 1.1279999999999999e-05 0 1.138e-05 3.3 1.1299999999999999e-05 3.3 1.14e-05 0 1.1319999999999998e-05 0 1.1419999999999999e-05 3.3 1.134e-05 3.3 1.144e-05 0 1.136e-05 0 1.146e-05 3.3 1.138e-05 3.3 1.148e-05 0 1.14e-05 0 1.15e-05 3.3 1.1419999999999999e-05 3.3 1.152e-05 0 1.1439999999999999e-05 0 1.154e-05 3.3 1.1459999999999999e-05 3.3 1.156e-05 0 1.1479999999999999e-05 0 1.158e-05 3.3 1.1499999999999998e-05 3.3 1.1599999999999999e-05 0 1.152e-05 0 1.162e-05 3.3 1.154e-05 3.3 1.164e-05 0 1.156e-05 0 1.166e-05 3.3 1.158e-05 3.3 1.168e-05 0 1.1599999999999999e-05 0 1.17e-05 3.3 1.1619999999999999e-05 3.3 1.172e-05 0 1.1639999999999999e-05 0 1.174e-05 3.3 1.1659999999999998e-05 3.3 1.176e-05 0 1.1679999999999998e-05 0 1.1779999999999999e-05 3.3 1.17e-05 3.3 1.18e-05 0 1.172e-05 0 1.182e-05 3.3 1.174e-05 3.3 1.184e-05 0 1.176e-05 0 1.186e-05 3.3 1.1779999999999999e-05 3.3 1.188e-05 0 1.1799999999999999e-05 0 1.19e-05 3.3 1.1819999999999999e-05 3.3 1.192e-05 0 1.1839999999999998e-05 0 1.194e-05 3.3 1.1859999999999998e-05 3.3 1.1959999999999999e-05 0 1.188e-05 0 1.198e-05 3.3 1.19e-05 3.3 1.2e-05 0 1.192e-05 0 1.202e-05 3.3 1.194e-05 3.3 1.204e-05 0 1.1959999999999999e-05 0 1.206e-05 3.3 1.1979999999999999e-05 3.3 1.208e-05 0 1.1999999999999999e-05 0 1.21e-05 3.3 1.2019999999999998e-05 3.3 1.212e-05 0 1.2039999999999998e-05 0 1.2139999999999999e-05 3.3 1.206e-05 3.3 1.216e-05 0 1.208e-05 0 1.218e-05 3.3 1.21e-05 3.3 1.22e-05 0 1.212e-05 0 1.222e-05 3.3 1.2139999999999999e-05 3.3 1.224e-05 0 1.2159999999999999e-05 0 1.226e-05 3.3 1.2179999999999999e-05 3.3 1.228e-05 0 1.2199999999999998e-05 0 1.2299999999999999e-05 3.3 1.2219999999999998e-05 3.3 1.2319999999999999e-05 0 1.224e-05 0 1.234e-05 3.3 1.226e-05 3.3 1.236e-05 0 1.228e-05 0 1.238e-05 3.3 1.2299999999999999e-05 3.3 1.24e-05 0 1.2319999999999999e-05 0 1.242e-05 3.3 1.2339999999999999e-05 3.3 1.244e-05 0 1.2359999999999999e-05 0 1.246e-05 3.3 1.2379999999999998e-05 3.3 1.2479999999999999e-05 0 1.2399999999999998e-05 0 1.2499999999999999e-05 3.3 1.242e-05 3.3 1.252e-05 0 1.244e-05 0 1.254e-05 3.3 1.246e-05 3.3 1.256e-05 0 1.2479999999999999e-05 0 1.258e-05 3.3 1.2499999999999999e-05 3.3 1.26e-05 0 1.2519999999999999e-05 0 1.262e-05 3.3 1.2539999999999999e-05 3.3 1.264e-05 0 1.2559999999999998e-05 0 1.2659999999999999e-05 3.3 1.258e-05 3.3 1.268e-05 0 1.26e-05 0 1.27e-05 3.3 1.262e-05 3.3 1.272e-05 0 1.264e-05 0 1.274e-05 3.3 1.2659999999999999e-05 3.3 1.276e-05 0 1.2679999999999999e-05 0 1.278e-05 3.3 1.2699999999999999e-05 3.3 1.28e-05 0 1.2719999999999998e-05 0 1.282e-05 3.3 1.2739999999999998e-05 3.3 1.2839999999999999e-05 0 1.276e-05 0 1.286e-05 3.3 1.278e-05 3.3 1.288e-05 0 1.28e-05 0 1.29e-05 3.3 1.282e-05 3.3 1.292e-05 0 1.2839999999999999e-05 0 1.294e-05 3.3 1.2859999999999999e-05 3.3 1.296e-05 0 1.2879999999999999e-05 0 1.298e-05 3.3 1.2899999999999998e-05 3.3 1.3e-05 0 1.2919999999999998e-05 0 1.3019999999999999e-05 3.3 1.294e-05 3.3 1.304e-05 0 1.296e-05 0 1.306e-05 3.3 1.298e-05 3.3 1.308e-05 0 1.3e-05 0 1.31e-05 3.3 1.3019999999999999e-05 3.3 1.312e-05 0 1.3039999999999999e-05 0 1.314e-05 3.3 1.3059999999999999e-05 3.3 1.316e-05 0 1.3079999999999998e-05 0 1.318e-05 3.3 1.3099999999999998e-05 3.3 1.3199999999999999e-05 0 1.312e-05 0 1.322e-05 3.3 1.314e-05 3.3 1.324e-05 0 1.316e-05 0 1.326e-05 3.3 1.318e-05 3.3 1.328e-05 0 1.3199999999999999e-05 0 1.33e-05 3.3 1.3219999999999999e-05 3.3 1.332e-05 0 1.3239999999999999e-05 0 1.334e-05 3.3 1.3259999999999998e-05 3.3 1.3359999999999999e-05 0 1.3279999999999998e-05 0 1.3379999999999999e-05 3.3 1.33e-05 3.3 1.34e-05 0 1.332e-05 0 1.342e-05 3.3 1.334e-05 3.3 1.344e-05 0 1.3359999999999999e-05 0 1.346e-05 3.3 1.3379999999999999e-05 3.3 1.348e-05 0 1.3399999999999999e-05 0 1.35e-05 3.3 1.3419999999999999e-05 3.3 1.352e-05 0 1.3439999999999998e-05 0 1.3539999999999999e-05 3.3 1.3459999999999998e-05 3.3 1.3559999999999999e-05 0 1.348e-05 0 1.358e-05 3.3 1.35e-05 3.3 1.36e-05 0 1.352e-05 0 1.362e-05 3.3 1.3539999999999999e-05 3.3 1.364e-05 0 1.3559999999999999e-05 0 1.366e-05 3.3 1.3579999999999999e-05 3.3 1.368e-05 0 1.3599999999999999e-05 0 1.37e-05 3.3 1.3619999999999998e-05 3.3 1.3719999999999999e-05 0 1.3639999999999998e-05 0 1.3739999999999999e-05 3.3 1.366e-05 3.3 1.376e-05 0 1.368e-05 0 1.378e-05 3.3 1.37e-05 3.3 1.38e-05 0 1.3719999999999999e-05 0 1.382e-05 3.3 1.3739999999999999e-05 3.3 1.384e-05 0 1.3759999999999999e-05 0 1.386e-05 3.3 1.3779999999999999e-05 3.3 1.388e-05 0 1.3799999999999998e-05 0 1.3899999999999999e-05 3.3 1.382e-05 3.3 1.392e-05 0 1.384e-05 0 1.394e-05 3.3 1.386e-05 3.3 1.396e-05 0 1.388e-05 0 1.398e-05 3.3 1.3899999999999999e-05 3.3 1.4e-05 0 1.3919999999999999e-05 0 1.402e-05 3.3 1.3939999999999999e-05 3.3 1.404e-05 0 1.3959999999999998e-05 0 1.406e-05 3.3 1.3979999999999998e-05 3.3 1.4079999999999999e-05 0 1.4e-05 0 1.41e-05 3.3 1.402e-05 3.3 1.412e-05 0 1.404e-05 0 1.414e-05 3.3 1.406e-05 3.3 1.416e-05 0 1.4079999999999999e-05 0 1.418e-05 3.3 1.4099999999999999e-05 3.3 1.42e-05 0 1.4119999999999999e-05 0 1.422e-05 3.3 1.4139999999999998e-05 3.3 1.424e-05 0 1.4159999999999998e-05 0 1.4259999999999999e-05 3.3 1.418e-05 3.3 1.428e-05 0 1.42e-05 0 1.43e-05 3.3 1.422e-05 3.3 1.432e-05 0 1.424e-05 0 1.434e-05 3.3 1.4259999999999999e-05 3.3 1.436e-05 0 1.4279999999999999e-05 0 1.438e-05 3.3 1.4299999999999999e-05 3.3 1.44e-05 0 1.4319999999999998e-05 0 1.442e-05 3.3 1.4339999999999998e-05 3.3 1.4439999999999999e-05 0 1.436e-05 0 1.446e-05 3.3 1.438e-05 3.3 1.448e-05 0 1.44e-05 0 1.45e-05 3.3 1.442e-05 3.3 1.452e-05 0 1.4439999999999999e-05 0 1.454e-05 3.3 1.4459999999999999e-05 3.3 1.456e-05 0 1.4479999999999999e-05 0 1.458e-05 3.3 1.4499999999999998e-05 3.3 1.4599999999999999e-05 0 1.4519999999999998e-05 0 1.4619999999999999e-05 3.3 1.454e-05 3.3 1.464e-05 0 1.456e-05 0 1.466e-05 3.3 1.458e-05 3.3 1.468e-05 0 1.4599999999999999e-05 0 1.47e-05 3.3 1.4619999999999999e-05 3.3 1.472e-05 0 1.4639999999999999e-05 0 1.474e-05 3.3 1.4659999999999999e-05 3.3 1.476e-05 0 1.4679999999999998e-05 0 1.4779999999999999e-05 3.3 1.4699999999999998e-05 3.3 1.4799999999999999e-05 0 1.472e-05 0 1.482e-05 3.3 1.474e-05 3.3 1.484e-05 0 1.476e-05 0 1.486e-05 3.3 1.4779999999999999e-05 3.3 1.488e-05 0 1.4799999999999999e-05 0 1.49e-05 3.3 1.4819999999999999e-05 3.3 1.492e-05 0 1.4839999999999999e-05 0 1.494e-05 3.3 1.4859999999999998e-05 3.3 1.4959999999999999e-05 0 1.4879999999999998e-05 0 1.4979999999999999e-05 3.3 1.49e-05 3.3 1.5e-05 0 1.492e-05 0 1.502e-05 3.3 1.494e-05 3.3 1.504e-05 0 1.4959999999999999e-05 0 1.506e-05 3.3 1.4979999999999999e-05 3.3 1.508e-05 0 1.4999999999999999e-05 0 1.51e-05 3.3 1.5019999999999998e-05 3.3 1.512e-05 0 1.5039999999999998e-05 0 1.5139999999999999e-05 3.3 1.5059999999999998e-05 3.3 1.5159999999999999e-05 0 1.508e-05 0 1.518e-05 3.3 1.51e-05 3.3 1.52e-05 0 1.512e-05 0 1.522e-05 3.3 1.5139999999999999e-05 3.3 1.524e-05 0 1.5159999999999999e-05 0 1.526e-05 3.3 1.5179999999999999e-05 3.3 1.528e-05 0 1.5199999999999998e-05 0 1.53e-05 3.3 1.5219999999999998e-05 3.3 1.532e-05 0 1.5239999999999998e-05 0 1.534e-05 3.3 1.526e-05 3.3 1.536e-05 0 1.528e-05 0 1.538e-05 3.3 1.53e-05 3.3 1.5399999999999998e-05 0 1.532e-05 0 1.5419999999999998e-05 3.3 1.5340000000000002e-05 3.3 1.544e-05 0 1.5360000000000002e-05 0 1.546e-05 3.3 1.5380000000000002e-05 3.3 1.548e-05 0 1.54e-05 0 1.55e-05 3.3 1.542e-05 3.3 1.552e-05 0 1.544e-05 0 1.554e-05 3.3 1.546e-05 3.3 1.556e-05 0 1.548e-05 0 1.558e-05 3.3 1.55e-05 3.3 1.56e-05 0 1.552e-05 0 1.562e-05 3.3 1.554e-05 3.3 1.564e-05 0 1.556e-05 0 1.566e-05 3.3 1.558e-05 3.3 1.568e-05 0 1.56e-05 0 1.57e-05 3.3 1.562e-05 3.3 1.572e-05 0 1.564e-05 0 1.574e-05 3.3 1.566e-05 3.3 1.5759999999999998e-05 0 1.568e-05 0 1.5779999999999998e-05 3.3 1.5700000000000002e-05 3.3 1.58e-05 0 1.5720000000000002e-05 0 1.582e-05 3.3 1.5740000000000002e-05 3.3 1.584e-05 0 1.576e-05 0 1.586e-05 3.3 1.578e-05 3.3 1.588e-05 0 1.58e-05 0 1.59e-05 3.3 1.582e-05 3.3 1.592e-05 0 1.584e-05 0 1.594e-05 3.3 1.586e-05 3.3 1.596e-05 0 1.588e-05 0 1.598e-05 3.3 1.59e-05 3.3 1.6e-05 0 1.592e-05 0 1.602e-05 3.3 1.594e-05 3.3 1.604e-05 0 1.596e-05 0 1.606e-05 3.3 1.598e-05 3.3 1.608e-05 0 1.6e-05 0 1.61e-05 3.3 1.602e-05 3.3 1.6119999999999998e-05 0 1.6040000000000002e-05 0 1.614e-05 3.3 1.6060000000000002e-05 3.3 1.616e-05 0 1.6080000000000002e-05 0 1.618e-05 3.3 1.6100000000000002e-05 3.3 1.62e-05 0 1.612e-05 0 1.622e-05 3.3 1.614e-05 3.3 1.624e-05 0 1.616e-05 0 1.626e-05 3.3 1.618e-05 3.3 1.628e-05 0 1.62e-05 0 1.63e-05 3.3 1.622e-05 3.3 1.632e-05 0 1.624e-05 0 1.634e-05 3.3 1.626e-05 3.3 1.636e-05 0 1.628e-05 0 1.638e-05 3.3 1.63e-05 3.3 1.64e-05 0 1.632e-05 0 1.642e-05 3.3 1.634e-05 3.3 1.644e-05 0 1.636e-05 0 1.6459999999999998e-05 3.3 1.638e-05 3.3 1.6479999999999998e-05 0 1.6400000000000002e-05 0 1.65e-05 3.3 1.6420000000000002e-05 3.3 1.652e-05 0 1.6440000000000002e-05 0 1.654e-05 3.3 1.646e-05 3.3 1.656e-05 0 1.648e-05 0 1.658e-05 3.3 1.65e-05 3.3 1.66e-05 0 1.652e-05 0 1.662e-05 3.3 1.654e-05 3.3 1.664e-05 0 1.656e-05 0 1.666e-05 3.3 1.658e-05 3.3 1.668e-05 0 1.66e-05 0 1.67e-05 3.3 1.662e-05 3.3 1.672e-05 0 1.664e-05 0 1.674e-05 3.3 1.666e-05 3.3 1.676e-05 0 1.668e-05 0 1.678e-05 3.3 1.67e-05 3.3 1.68e-05 0 1.672e-05 0 1.6819999999999998e-05 3.3 1.674e-05 3.3 1.6839999999999998e-05 0 1.6760000000000002e-05 0 1.686e-05 3.3 1.6780000000000002e-05 3.3 1.688e-05 0 1.6800000000000002e-05 0 1.69e-05 3.3 1.682e-05 3.3 1.692e-05 0 1.684e-05 0 1.694e-05 3.3 1.686e-05 3.3 1.696e-05 0 1.688e-05 0 1.698e-05 3.3 1.69e-05 3.3 1.7e-05 0 1.692e-05 0 1.702e-05 3.3 1.694e-05 3.3 1.704e-05 0 1.696e-05 0 1.706e-05 3.3 1.698e-05 3.3 1.708e-05 0 1.7e-05 0 1.71e-05 3.3 1.702e-05 3.3 1.712e-05 0 1.704e-05 0 1.714e-05 3.3 1.706e-05 3.3 1.716e-05 0 1.708e-05 0 1.7179999999999998e-05 3.3 1.7100000000000002e-05 3.3 1.72e-05 0 1.7120000000000002e-05 0 1.722e-05 3.3 1.7140000000000002e-05 3.3 1.724e-05 0 1.7160000000000002e-05 0 1.726e-05 3.3 1.718e-05 3.3 1.728e-05 0 1.72e-05 0 1.73e-05 3.3 1.722e-05 3.3 1.732e-05 0 1.724e-05 0 1.734e-05 3.3 1.726e-05 3.3 1.736e-05 0 1.728e-05 0 1.738e-05 3.3 1.73e-05 3.3 1.74e-05 0 1.732e-05 0 1.742e-05 3.3 1.734e-05 3.3 1.744e-05 0 1.736e-05 0 1.746e-05 3.3 1.738e-05 3.3 1.748e-05 0 1.74e-05 0 1.75e-05 3.3 1.742e-05 3.3 1.7519999999999998e-05 0 1.744e-05 0 1.7539999999999998e-05 3.3 1.7460000000000002e-05 3.3 1.756e-05 0 1.7480000000000002e-05 0 1.758e-05 3.3 1.7500000000000002e-05 3.3 1.76e-05 0 1.752e-05 0 1.762e-05 3.3 1.754e-05 3.3 1.764e-05 0 1.756e-05 0 1.766e-05 3.3 1.758e-05 3.3 1.768e-05 0 1.76e-05 0 1.77e-05 3.3 1.762e-05 3.3 1.772e-05 0 1.764e-05 0 1.774e-05 3.3 1.766e-05 3.3 1.776e-05 0 1.768e-05 0 1.778e-05 3.3 1.77e-05 3.3 1.78e-05 0 1.772e-05 0 1.782e-05 3.3 1.774e-05 3.3 1.784e-05 0 1.776e-05 0 1.786e-05 3.3 1.778e-05 3.3 1.7879999999999998e-05 0 1.78e-05 0 1.7899999999999998e-05 3.3 1.7820000000000002e-05 3.3 1.792e-05 0 1.7840000000000002e-05 0 1.794e-05 3.3 1.7860000000000002e-05 3.3 1.796e-05 0 1.788e-05 0 1.798e-05 3.3 1.79e-05 3.3 1.8e-05 0 1.792e-05 0 1.802e-05 3.3 1.794e-05 3.3 1.804e-05 0 1.796e-05 0 1.806e-05 3.3 1.798e-05 3.3 1.808e-05 0 1.8e-05 0 1.81e-05 3.3 1.802e-05 3.3 1.812e-05 0 1.804e-05 0 1.814e-05 3.3 1.806e-05 3.3 1.816e-05 0 1.808e-05 0 1.818e-05 3.3 1.81e-05 3.3 1.82e-05 0 1.812e-05 0 1.822e-05 3.3 1.814e-05 3.3 1.8239999999999998e-05 0 1.816e-05 0 1.8259999999999998e-05 3.3 1.8180000000000002e-05 3.3 1.828e-05 0 1.8200000000000002e-05 0 1.83e-05 3.3 1.8220000000000002e-05 3.3 1.832e-05 0 1.824e-05 0 1.834e-05 3.3 1.826e-05 3.3 1.836e-05 0 1.828e-05 0 1.838e-05 3.3 1.83e-05 3.3 1.84e-05 0 1.832e-05 0 1.842e-05 3.3 1.834e-05 3.3 1.844e-05 0 1.836e-05 0 1.846e-05 3.3 1.838e-05 3.3 1.848e-05 0 1.84e-05 0 1.85e-05 3.3 1.842e-05 3.3 1.852e-05 0 1.844e-05 0 1.854e-05 3.3 1.846e-05 3.3 1.856e-05 0 1.848e-05 0 1.8579999999999998e-05 3.3 1.85e-05 3.3 1.8599999999999998e-05 0 1.8520000000000002e-05 0 1.862e-05 3.3 1.8540000000000002e-05 3.3 1.864e-05 0 1.8560000000000002e-05 0 1.866e-05 3.3 1.858e-05 3.3 1.868e-05 0 1.86e-05 0 1.87e-05 3.3 1.862e-05 3.3 1.872e-05 0 1.864e-05 0 1.874e-05 3.3 1.866e-05 3.3 1.876e-05 0 1.868e-05 0 1.878e-05 3.3 1.87e-05 3.3 1.88e-05 0 1.872e-05 0 1.882e-05 3.3 1.874e-05 3.3 1.884e-05 0 1.876e-05 0 1.886e-05 3.3 1.878e-05 3.3 1.888e-05 0 1.88e-05 0 1.89e-05 3.3 1.882e-05 3.3 1.892e-05 0 1.884e-05 0 1.8939999999999998e-05 3.3 1.886e-05 3.3 1.8959999999999998e-05 0 1.8880000000000002e-05 0 1.898e-05 3.3 1.8900000000000002e-05 3.3 1.9e-05 0 1.8920000000000002e-05 0 1.902e-05 3.3 1.894e-05 3.3 1.904e-05 0 1.896e-05 0 1.906e-05 3.3 1.898e-05 3.3 1.908e-05 0 1.9e-05 0 1.91e-05 3.3 1.902e-05 3.3 1.912e-05 0 1.904e-05 0 1.914e-05 3.3 1.906e-05 3.3 1.916e-05 0 1.908e-05 0 1.918e-05 3.3 1.91e-05 3.3 1.92e-05 0 1.912e-05 0 1.922e-05 3.3 1.914e-05 3.3 1.924e-05 0 1.916e-05 0 1.926e-05 3.3 1.918e-05 3.3 1.928e-05 0 1.92e-05 0 1.9299999999999998e-05 3.3 1.922e-05 3.3 1.9319999999999998e-05 0 1.9240000000000002e-05 0 1.934e-05 3.3 1.9260000000000002e-05 3.3 1.936e-05 0 1.9280000000000002e-05 0 1.938e-05 3.3 1.93e-05 3.3 1.94e-05 0 1.932e-05 0 1.942e-05 3.3 1.934e-05 3.3 1.944e-05 0 1.936e-05 0 1.946e-05 3.3 1.938e-05 3.3 1.948e-05 0 1.94e-05 0 1.95e-05 3.3 1.942e